obj01
  PyMOL2.5          3D                             0

 67 71  0  0  0  0  0  0  0  0999 V2000
   -4.4760    2.5590   14.0880 C   0  0  0  0  0  0  0  0  0  0  0  0
   -4.2190    1.9740   15.2850 N   0  0  0  0  0  0  0  0  0  0  0  0
   -1.6760   -4.8140    8.1530 O   0  0  0  0  0  0  0  0  0  0  0  0
   -3.5530    0.8020   12.8650 C   0  0  0  0  0  0  0  0  0  0  0  0
   -4.1650    2.0170   12.8820 N   0  0  0  0  0  0  0  0  0  0  0  0
   -3.8990   10.7270    9.9470 O   0  0  0  0  0  0  0  0  0  0  0  0
   -3.2780    0.1170   14.0540 C   0  0  0  0  0  0  0  0  0  0  0  0
   -5.1460    3.7900   14.1530 N   0  0  0  0  0  0  0  0  0  0  0  0
   -3.6330    0.7470   15.2510 C   0  0  0  0  0  0  0  0  0  0  0  0
   -3.3020    0.0430    9.2400 N   0  0  0  0  0  0  0  0  0  0  0  0
   -3.2230    0.2880   11.5000 C   0  0  0  0  0  0  0  0  0  0  0  0
    0.0340   -3.5800    9.0240 N   0  0  0  0  0  0  0  0  0  0  0  0
   -3.8010    0.7240   10.3180 C   0  0  0  0  0  0  0  0  0  0  0  0
   -6.7050    6.1780   12.0380 N   0  0  0  0  0  0  0  0  0  0  0  0
   -2.3830   -0.8850    9.6840 C   0  0  0  0  0  0  0  0  0  0  0  0
   -6.0080    5.5270   11.1000 N   0  0  0  0  0  0  0  0  0  0  0  0
   -2.2710   -0.7270   11.1040 C   0  0  0  0  0  0  0  0  0  0  0  0
   -5.6450    8.9490   11.3790 N   0  0  0  0  0  0  0  0  0  0  0  0
   -1.6360   -1.8280    8.9700 C   0  0  0  0  0  0  0  0  0  0  0  0
   -0.7380   -2.6190    9.6910 C   0  0  0  0  0  0  0  0  0  0  0  0
   -0.5620   -2.4450   11.0630 C   0  0  0  0  0  0  0  0  0  0  0  0
   -1.3220   -1.5180   11.7800 C   0  0  0  0  0  0  0  0  0  0  0  0
   -3.6620    0.2860    7.8540 C   0  0  0  0  0  0  0  0  0  0  0  0
   -0.4690   -4.5940    8.2900 C   0  0  0  0  0  0  0  0  0  0  0  0
    0.5990   -5.4210    7.3030 C   0  0  0  0  0  0  0  0  0  0  0  0
    0.4730   -6.8560    6.4250 C   0  0  0  0  0  0  0  0  0  0  0  0
   -5.6340    4.5920   13.1410 C   0  0  0  0  0  0  0  0  0  0  0  0
   -6.5140    5.6570   13.3000 C   0  0  0  0  0  0  0  0  0  0  0  0
   -5.3800    4.5810   11.7560 C   0  0  0  0  0  0  0  0  0  0  0  0
   -7.2090    6.2020   14.5230 C   0  0  0  0  0  0  0  0  0  0  0  0
   -7.5590    7.3020   11.6460 C   0  0  0  0  0  0  0  0  0  0  0  0
   -6.9440    8.6750   12.0060 C   0  0  0  0  0  0  0  0  0  0  0  0
   -5.7610    9.1340    9.9240 C   0  0  0  0  0  0  0  0  0  0  0  0
   -4.4330    9.5870    9.2800 C   0  0  0  0  0  0  0  0  0  0  0  0
   -3.6810   10.5010   11.3360 C   0  0  0  0  0  0  0  0  0  0  0  0
   -5.0040   10.1050   12.0230 C   0  0  0  0  0  0  0  0  0  0  0  0
   -2.8320   -0.8650   14.0620 H   0  0  0  0  0  0  0  0  0  0  0  0
   -3.4460    0.2690   16.2030 H   0  0  0  0  0  0  0  0  0  0  0  0
   -5.2970    4.0640   15.1140 H   0  0  0  0  0  0  0  0  0  0  0  0
   -4.5560    1.4810   10.1560 H   0  0  0  0  0  0  0  0  0  0  0  0
   -1.7470   -1.9460    7.9030 H   0  0  0  0  0  0  0  0  0  0  0  0
    0.1610   -3.0510   11.5920 H   0  0  0  0  0  0  0  0  0  0  0  0
   -1.1620   -1.4090   12.8410 H   0  0  0  0  0  0  0  0  0  0  0  0
   -2.7770    0.6160    7.3090 H   0  0  0  0  0  0  0  0  0  0  0  0
   -4.4300    1.0560    7.7910 H   0  0  0  0  0  0  0  0  0  0  0  0
   -4.0330   -0.6370    7.4100 H   0  0  0  0  0  0  0  0  0  0  0  0
    1.0330   -3.5460    9.1650 H   0  0  0  0  0  0  0  0  0  0  0  0
   -4.7320    3.8960   11.2360 H   0  0  0  0  0  0  0  0  0  0  0  0
   -6.7310    5.8540   15.4360 H   0  0  0  0  0  0  0  0  0  0  0  0
   -8.2500    5.8830   14.5520 H   0  0  0  0  0  0  0  0  0  0  0  0
   -7.2030    7.2880   14.5620 H   0  0  0  0  0  0  0  0  0  0  0  0
   -7.7750    7.2320   10.5790 H   0  0  0  0  0  0  0  0  0  0  0  0
   -8.5190    7.1800   12.1480 H   0  0  0  0  0  0  0  0  0  0  0  0
   -7.6480    9.4630   11.7320 H   0  0  0  0  0  0  0  0  0  0  0  0
   -6.8460    8.7500   13.0890 H   0  0  0  0  0  0  0  0  0  0  0  0
   -6.1080    8.2110    9.4560 H   0  0  0  0  0  0  0  0  0  0  0  0
   -6.5250    9.8840    9.7130 H   0  0  0  0  0  0  0  0  0  0  0  0
   -3.7150    8.7660    9.3220 H   0  0  0  0  0  0  0  0  0  0  0  0
   -4.5860    9.8240    8.2290 H   0  0  0  0  0  0  0  0  0  0  0  0
   -2.9460    9.7070   11.4650 H   0  0  0  0  0  0  0  0  0  0  0  0
   -3.2680   11.4010   11.7910 H   0  0  0  0  0  0  0  0  0  0  0  0
   -5.6860   10.9560   12.0030 H   0  0  0  0  0  0  0  0  0  0  0  0
   -4.8310    9.8850   13.0780 H   0  0  0  0  0  0  0  0  0  0  0  0
    1.5990   -5.3690    7.6860 H   0  0  0  0  0  0  0  0  0  0  0  0
    0.7040   -4.6830    6.5090 H   0  0  0  0  0  0  0  0  0  0  0  0
   -0.5730   -7.0640    6.2470 H   0  0  0  0  0  0  0  0  0  0  0  0
    0.6570   -7.6070    7.1910 H   0  0  0  0  0  0  0  0  0  0  0  0
  1  5  4  0  0  0  0
  1  8  1  0  0  0  0
  1  2  4  0  0  0  0
  2  9  4  0  0  0  0
  4  7  4  0  0  0  0
  4 11  1  0  0  0  0
  4  5  4  0  0  0  0
  6 35  1  0  0  0  0
  7  9  4  0  0  0  0
  7 37  1  0  0  0  0
  8 27  1  0  0  0  0
  8 39  1  0  0  0  0
  9 38  1  0  0  0  0
 10 15  4  0  0  0  0
 10 23  1  0  0  0  0
 11 13  4  0  0  0  0
 11 17  4  0  0  0  0
 12 24  1  0  0  0  0
 12 47  1  0  0  0  0
 10 13  4  0  0  0  0
 13 40  1  0  0  0  0
 14 16  4  0  0  0  0
 14 31  1  0  0  0  0
 15 17  4  0  0  0  0
 15 19  4  0  0  0  0
 16 29  4  0  0  0  0
 17 22  4  0  0  0  0
 18 33  1  0  0  0  0
 18 36  1  0  0  0  0
 19 20  4  0  0  0  0
 19 41  1  0  0  0  0
 12 20  1  0  0  0  0
 20 21  4  0  0  0  0
 21 22  4  0  0  0  0
 21 42  1  0  0  0  0
 22 43  1  0  0  0  0
 23 44  1  0  0  0  0
 23 45  1  0  0  0  0
 23 46  1  0  0  0  0
  3 24  2  0  0  0  0
 24 25  1  0  0  0  0
 25 26  1  0  0  0  0
 25 64  1  0  0  0  0
 25 65  1  0  0  0  0
 26 66  1  0  0  0  0
 26 67  1  0  0  0  0
 27 28  4  0  0  0  0
 27 29  4  0  0  0  0
 14 28  4  0  0  0  0
 28 30  1  0  0  0  0
 29 48  1  0  0  0  0
 30 49  1  0  0  0  0
 30 50  1  0  0  0  0
 30 51  1  0  0  0  0
 31 32  1  0  0  0  0
 31 52  1  0  0  0  0
 31 53  1  0  0  0  0
 18 32  1  0  0  0  0
 32 54  1  0  0  0  0
 32 55  1  0  0  0  0
 33 34  1  0  0  0  0
 33 56  1  0  0  0  0
 33 57  1  0  0  0  0
  6 34  1  0  0  0  0
 34 58  1  0  0  0  0
 34 59  1  0  0  0  0
 35 36  1  0  0  0  0
 35 60  1  0  0  0  0
 35 61  1  0  0  0  0
 36 62  1  0  0  0  0
 36 63  1  0  0  0  0
M  END
$$$$
